22

C -2.0079 -1.4307 0.3941
C -1.3197 -0.4007 -0.4976
N -0.0027 0.0035 0.0334
C 1.0105 -1.0342 -0.2433
C 2.2195 -0.9185 0.6811
C 0.4122 1.3008 -0.5366
C -0.3081 2.4747 0.1212
H -3.0215 -1.622 0.0259
H -2.0906 -1.0655 1.4234
H -1.4805 -2.3883 0.4098
H -1.2329 -0.7831 -1.5226
H -1.9972 0.4586 -0.5453
H 0.5957 -2.0337 -0.0748
H 1.3304 -1.0053 -1.2926
H 2.7946 -0.0054 0.5043
H 2.8938 -1.7659 0.5178
H 1.9124 -0.9346 1.7323
H 1.4814 1.4711 -0.3712
H 0.2602 1.3225 -1.6232
H 0.1041 3.4186 -0.2512
H -1.3803 2.48 -0.093
H -0.1736 2.4581 1.2081
